Representative_Reconfigurable_Test_Networks/selected_reconfigurable_networks/reconfigurable_case_3.m
function mpc = reconfigurable_case_3

% function mpc = ../matpowerfiles/LV_fg82
mpc.version = '2';
mpc.baseMVA = 1;
mpc.bus = [
	2022	3	0.0	0.0	0.0	0.0	123	1	0	0.23	1	1.1	0.9;
	2023	1	0.0	0.0	0.0	0.0	123	1	0	0.23	1	1.1	0.9;
	2024	1	0.0	0.0	0.0	0.0	123	1	0	0.23	1	1.1	0.9;
	2025	1	0.0	0.0	0.0	0.0	123	1	0	0.23	1	1.1	0.9;
	2026	1	0.004381306275363	0.0003961952147079999	0.0	0.0	123	1	0	0.23	1	1.1	0.9;
	2027	1	0.0	0.0	0.0	0.0	123	1	0	0.23	1	1.1	0.9;
	2028	1	0.006526341729867	0.0007067934448539999	0.0	0.0	123	1	0	0.23	1	1.1	0.9;
	2029	1	0.0	0.0	0.0	0.0	123	1	0	0.23	1	1.1	0.9;
	2030	1	0.006558647910104	0.000628056836753	0.0	0.0	123	1	0	0.23	1	1.1	0.9;
	2031	1	0.0	0.0	0.0	0.0	123	1	0	0.23	1	1.1	0.9;
	2032	1	0.0	0.0	0.0	0.0	123	1	0	0.23	1	1.1	0.9;
	2033	1	0.004886875260678	0.00052007604886	0.0	0.0	123	1	0	0.23	1	1.1	0.9;
	2034	1	0.0	0.0	0.0	0.0	123	1	0	0.23	1	1.1	0.9;
	2035	1	0.0	0.0	0.0	0.0	123	1	0	0.23	1	1.1	0.9;
	2036	1	0.0	0.0	0.0	0.0	123	1	0	0.23	1	1.1	0.9;
	2037	1	0.0	0.0	0.0	0.0	123	1	0	0.23	1	1.1	0.9;
	2038	1	0.000211593318073	1.6963376612e-05	0.0	0.0	123	1	0	0.23	1	1.1	0.9;
	2039	1	0.0	0.0	0.0	0.0	123	1	0	0.23	1	1.1	0.9;
	2040	1	0.0	0.0	0.0	0.0	123	1	0	0.23	1	1.1	0.9;
	2041	1	0.000195757129128	2.4262090499e-05	0.0	0.0	123	1	0	0.23	1	1.1	0.9;
	2042	1	0.0	0.0	0.0	0.0	123	1	0	0.23	1	1.1	0.9;
	2043	1	0.0	0.0	0.0	0.0	123	1	0	0.23	1	1.1	0.9;
	2044	1	0.0	0.0	0.0	0.0	123	1	0	0.23	1	1.1	0.9;
	2045	1	0.000278741730102	2.2314352137e-05	0.0	0.0	123	1	0	0.23	1	1.1	0.9;
	2046	1	0.0	0.0	0.0	0.0	123	1	0	0.23	1	1.1	0.9;
	2047	1	0.0	0.0	0.0	0.0	123	1	0	0.23	1	1.1	0.9;
	2048	1	0.000210345616744	2.2123198368e-05	0.0	0.0	123	1	0	0.23	1	1.1	0.9;
	2049	1	0.0	0.0	0.0	0.0	123	1	0	0.23	1	1.1	0.9;
	2050	1	0.0	0.0	0.0	0.0	123	1	0	0.23	1	1.1	0.9;
	2051	1	0.000217995381097	1.8711602104e-05	0.0	0.0	123	1	0	0.23	1	1.1	0.9;
	2052	1	0.0	0.0	0.0	0.0	123	1	0	0.23	1	1.1	0.9;
	2053	1	0.00027159749296	2.8297085557e-05	0.0	0.0	123	1	0	0.23	1	1.1	0.9;
	2054	1	0.0	0.0	0.0	0.0	123	1	0	0.23	1	1.1	0.9;
	2055	1	0.0	0.0	0.0	0.0	123	1	0	0.23	1	1.1	0.9;
	2056	1	0.000168927528907	2.0114898159e-05	0.0	0.0	123	1	0	0.23	1	1.1	0.9;
	2057	1	0.0	0.0	0.0	0.0	123	1	0	0.23	1	1.1	0.9;
	2058	1	0.000170078874737	2.6391039314e-05	0.0	0.0	123	1	0	0.23	1	1.1	0.9;
	2059	1	0.0	0.0	0.0	0.0	123	1	0	0.23	1	1.1	0.9;
	2060	1	0.0	0.0	0.0	0.0	123	1	0	0.23	1	1.1	0.9;
	2061	1	0.0	0.0	0.0	0.0	123	1	0	0.23	1	1.1	0.9;
	2062	1	0.0	0.0	0.0	0.0	123	1	0	0.23	1	1.1	0.9;
	2063	1	0.0	0.0	0.0	0.0	123	1	0	0.23	1	1.1	0.9;
	2064	1	0.000252790170168	1.8642182171e-05	0.0	0.0	123	1	0	0.23	1	1.1	0.9;
	3570	3	0.0	0.0	0.0	0.0	234	1	0	0.23	1	1.1	0.9;
	3571	1	0.0	0.0	0.0	0.0	234	1	0	0.23	1	1.1	0.9;
	3572	1	0.0	0.0	0.0	0.0	234	1	0	0.23	1	1.1	0.9;
	3573	1	0.00371953458175	0.000351461010962	0.0	0.0	234	1	0	0.23	1	1.1	0.9;
	3574	1	0.0	0.0	0.0	0.0	234	1	0	0.23	1	1.1	0.9;
	3575	1	0.0	0.0	0.0	0.0	234	1	0	0.23	1	1.1	0.9;
	3576	1	0.0	0.0	0.0	0.0	234	1	0	0.23	1	1.1	0.9;
	3577	1	0.0	0.0	0.0	0.0	234	1	0	0.23	1	1.1	0.9;
	3578	1	0.004627969542878	0.000425677107853	0.0	0.0	234	1	0	0.23	1	1.1	0.9;
	3579	1	0.0	0.0	0.0	0.0	234	1	0	0.23	1	1.1	0.9;
	3580	1	0.0	0.0	0.0	0.0	234	1	0	0.23	1	1.1	0.9;
	3581	1	0.0	0.0	0.0	0.0	234	1	0	0.23	1	1.1	0.9;
	3582	1	0.007659159294791999	0.0007317992393969999	0.0	0.0	234	1	0	0.23	1	1.1	0.9;
	3583	1	0.0	0.0	0.0	0.0	234	1	0	0.23	1	1.1	0.9;
	3584	1	0.000762895120169	9.9768388587e-05	0.0	0.0	234	1	0	0.23	1	1.1	0.9;
	3585	1	0.0	0.0	0.0	0.0	234	1	0	0.23	1	1.1	0.9;
	3586	1	0.0	0.0	0.0	0.0	234	1	0	0.23	1	1.1	0.9;
	3587	1	0.0	0.0	0.0	0.0	234	1	0	0.23	1	1.1	0.9;
	3588	1	0.0	0.0	0.0	0.0	234	1	0	0.23	1	1.1	0.9;
	3589	1	0.0	0.0	0.0	0.0	234	1	0	0.23	1	1.1	0.9;
	3590	1	0.0	0.0	0.0	0.0	234	1	0	0.23	1	1.1	0.9;
	3591	1	0.0	0.0	0.0	0.0	234	1	0	0.23	1	1.1	0.9;
	3592	1	0.0	0.0	0.0	0.0	234	1	0	0.23	1	1.1	0.9;
	3593	1	0.009656601216248001	0.0009592517064160001	0.0	0.0	234	1	0	0.23	1	1.1	0.9;
	3594	1	0.0	0.0	0.0	0.0	234	1	0	0.23	1	1.1	0.9;
	3595	1	0.0	0.0	0.0	0.0	234	1	0	0.23	1	1.1	0.9;
	3596	1	0.006190335562676	0.0005951334773279999	0.0	0.0	234	1	0	0.23	1	1.1	0.9;
	3597	1	0.0	0.0	0.0	0.0	234	1	0	0.23	1	1.1	0.9;
	3598	1	0.0	0.0	0.0	0.0	234	1	0	0.23	1	1.1	0.9;
	3599	1	0.00407230663928	0.000377549181919	0.0	0.0	234	1	0	0.23	1	1.1	0.9;
	3600	1	0.0	0.0	0.0	0.0	234	1	0	0.23	1	1.1	0.9;
	3601	1	0.0	0.0	0.0	0.0	234	1	0	0.23	1	1.1	0.9;
	3602	1	0.005211091759478	0.000501916670998	0.0	0.0	234	1	0	0.23	1	1.1	0.9;
	3603	1	0.0	0.0	0.0	0.0	234	1	0	0.23	1	1.1	0.9;
	3604	1	0.0	0.0	0.0	0.0	234	1	0	0.23	1	1.1	0.9;
	3605	1	0.0	0.0	0.0	0.0	234	1	0	0.23	1	1.1	0.9;
	3606	1	0.0	0.0	0.0	0.0	234	1	0	0.23	1	1.1	0.9;
	3607	1	0.0	0.0	0.0	0.0	234	1	0	0.23	1	1.1	0.9;
	3608	1	0.0	0.0	0.0	0.0	234	1	0	0.23	1	1.1	0.9;
	3609	1	0.0	0.0	0.0	0.0	234	1	0	0.23	1	1.1	0.9;
	3610	1	0.00795311488313	0.0008067050158719999	0.0	0.0	234	1	0	0.23	1	1.1	0.9;
	3611	1	0.0	0.0	0.0	0.0	234	1	0	0.23	1	1.1	0.9;
	3612	1	0.0	0.0	0.0	0.0	234	1	0	0.23	1	1.1	0.9;
	3613	1	0.000494822900658	4.550697272e-05	0.0	0.0	234	1	0	0.23	1	1.1	0.9;
	3614	1	0.0	0.0	0.0	0.0	234	1	0	0.23	1	1.1	0.9;
	3615	1	0.0	0.0	0.0	0.0	234	1	0	0.23	1	1.1	0.9;
	3616	1	0.0	0.0	0.0	0.0	234	1	0	0.23	1	1.1	0.9;
	3617	1	0.0	0.0	0.0	0.0	234	1	0	0.23	1	1.1	0.9;
	3618	1	0.0	0.0	0.0	0.0	234	1	0	0.23	1	1.1	0.9;
	3619	1	0.0	0.0	0.0	0.0	234	1	0	0.23	1	1.1	0.9;
	3620	1	0.0007962105360799999	7.9669937259e-05	0.0	0.0	234	1	0	0.23	1	1.1	0.9;
	3621	1	0.0	0.0	0.0	0.0	234	1	0	0.23	1	1.1	0.9;
	3622	1	0.0	0.0	0.0	0.0	234	1	0	0.23	1	1.1	0.9;
	3623	1	0.0	0.0	0.0	0.0	234	1	0	0.23	1	1.1	0.9;
	3624	1	0.0	0.0	0.0	0.0	234	1	0	0.23	1	1.1	0.9;
	3626	3	0.0	0.0	0.0	0.0	236	1	0	0.23	1	1.1	0.9;
	3627	1	0.0	0.0	0.0	0.0	236	1	0	0.23	1	1.1	0.9;
	3628	1	0.0	0.0	0.0	0.0	236	1	0	0.23	1	1.1	0.9;
	3629	1	0.0	0.0	0.0	0.0	236	1	0	0.23	1	1.1	0.9;
	3667	3	0.0	0.0	0.0	0.0	240	1	0	0.23	1	1.1	0.9;
	3668	1	0.0	0.0	0.0	0.0	240	1	0	0.23	1	1.1	0.9;
	3669	1	0.0	0.0	0.0	0.0	240	1	0	0.23	1	1.1	0.9;
	3670	1	0.0	0.0	0.0	0.0	240	1	0	0.23	1	1.1	0.9;
	3671	1	0.0	0.0	0.0	0.0	240	1	0	0.23	1	1.1	0.9;
	3672	1	0.0	0.0	0.0	0.0	240	1	0	0.23	1	1.1	0.9;
	3673	1	0.003048665628914001	0.000317678437125	0.0	0.0	240	1	0	0.23	1	1.1	0.9;
	3674	1	0.0	0.0	0.0	0.0	240	1	0	0.23	1	1.1	0.9;
	3675	1	0.003129682409035	0.000279951270878	0.0	0.0	240	1	0	0.23	1	1.1	0.9;
	3676	1	0.0	0.0	0.0	0.0	240	1	0	0.23	1	1.1	0.9;
	3677	1	0.0	0.0	0.0	0.0	240	1	0	0.23	1	1.1	0.9;
	3678	1	0.0	0.0	0.0	0.0	240	1	0	0.23	1	1.1	0.9;
	3679	1	0.0	0.0	0.0	0.0	240	1	0	0.23	1	1.1	0.9;
	3680	1	0.002894898846363	0.000289785290692	0.0	0.0	240	1	0	0.23	1	1.1	0.9;
	3681	1	0.0	0.0	0.0	0.0	240	1	0	0.23	1	1.1	0.9;
	3682	1	0.002870013192424	0.000276919468386	0.0	0.0	240	1	0	0.23	1	1.1	0.9;
	3683	1	0.0	0.0	0.0	0.0	240	1	0	0.23	1	1.1	0.9;
	3684	1	0.0	0.0	0.0	0.0	240	1	0	0.23	1	1.1	0.9;
	3685	1	0.0	0.0	0.0	0.0	240	1	0	0.23	1	1.1	0.9;
	3686	1	0.0	0.0	0.0	0.0	240	1	0	0.23	1	1.1	0.9;
	3687	1	0.0	0.0	0.0	0.0	240	1	0	0.23	1	1.1	0.9;
	3688	1	0.006395033390569	0.0005554020924659999	0.0	0.0	240	1	0	0.23	1	1.1	0.9;
	3689	1	0.0	0.0	0.0	0.0	240	1	0	0.23	1	1.1	0.9;
	3690	1	0.0	0.0	0.0	0.0	240	1	0	0.23	1	1.1	0.9;
	3691	1	0.003440183061849	0.000359308765303	0.0	0.0	240	1	0	0.23	1	1.1	0.9;
	3692	1	0.0	0.0	0.0	0.0	240	1	0	0.23	1	1.1	0.9;
	3693	1	0.0	0.0	0.0	0.0	240	1	0	0.23	1	1.1	0.9;
	3694	1	0.004727013762803	0.000549955144449	0.0	0.0	240	1	0	0.23	1	1.1	0.9;
	3695	1	0.0	0.0	0.0	0.0	240	1	0	0.23	1	1.1	0.9;
	3696	1	0.000748657367186	9.0836060528e-05	0.0	0.0	240	1	0	0.23	1	1.1	0.9;
];

mpc.gen = [
	2022	0.0	0.0	Inf	-Inf	1	1	1	Inf	-Inf;
	3570	0.0	0.0	Inf	-Inf	1	1	1	Inf	-Inf;
	3626	0.0	0.0	Inf	-Inf	1	1	1	Inf	-Inf;
	3667	0.0	0.0	Inf	-Inf	1	1	1	Inf	-Inf;
];

mpc.gencost = [
	2	0	0	2	1	0;
	2	0	0	2	1	0;
	2	0	0	2	1	0;
	2	0	0	2	1	0;
];

mpc.branch = [
	2022	2023	0.06547400756143668	0.024102079395085067	0	0	0	0	0	0	1	-89.9	89.9;
	2023	2024	0.09602854442344044	0.03534971644612476	0	0	0	0	0	0	1	-89.9	89.9;
	2024	2025	0.18018714555765597	0.03612476370510397	0	0	0	0	0	0	1	-89.9	89.9;
	2025	2026	0.00021739130434782607	2.835538752362949e-05	0	0	0	0	0	0	1	-89.9	89.9;
	2025	2027	0.18018714555765597	0.03612476370510397	0	0	0	0	0	0	1	-89.9	89.9;
	2027	2028	0.00021739130434782607	2.835538752362949e-05	0	0	0	0	0	0	1	-89.9	89.9;
	2027	2029	0.1887674858223062	0.03784499054820416	0	0	0	0	0	0	1	-89.9	89.9;
	2029	2030	0.00021739130434782607	2.835538752362949e-05	0	0	0	0	0	0	1	-89.9	89.9;
	2029	2031	0.12870510396975426	0.025803402646502833	0	0	0	0	0	0	1	-89.9	89.9;
	2031	2032	0.08293374291115312	0.030529300567107752	0	0	0	0	0	0	1	-89.9	89.9;
	2032	2033	0.00021739130434782607	2.835538752362949e-05	0	0	0	0	0	0	1	-89.9	89.9;
	2032	2034	0.06547400756143668	0.024102079395085067	0	0	0	0	0	0	1	-89.9	89.9;
	2031	2035	0.3593660491493384	0.08916824196597353	0	0	0	0	0	0	1	-89.9	89.9;
	2035	2036	0.013560982986767486	0.003364839319470699	0	0	0	0	0	0	1	-89.9	89.9;
	2036	2037	0.4854442344045369	0.020415879017013232	0	0	0	0	0	0	1	-89.9	89.9;
	2037	2038	0.00021739130434782607	2.835538752362949e-05	0	0	0	0	0	0	1	-89.9	89.9;
	2036	2039	0.2868147901701323	0.07116635160680529	0	0	0	0	0	0	1	-89.9	89.9;
	2039	2040	0.4474177693761815	0.01881663516068053	0	0	0	0	0	0	1	-89.9	89.9;
	2040	2041	0.00021739130434782607	2.835538752362949e-05	0	0	0	0	0	0	1	-89.9	89.9;
	2039	2042	0.33122700945179584	0.08218620037807182	0	0	0	0	0	0	1	-89.9	89.9;
	2042	2043	0.00021739130434782607	2.835538752362949e-05	0	0	0	0	0	0	1	-89.9	89.9;
	2042	2044	0.5258979206049149	0.022117202268431	0	0	0	0	0	0	1	-89.9	89.9;
	2044	2045	0.00021739130434782607	2.835538752362949e-05	0	0	0	0	0	0	1	-89.9	89.9;
	2044	2046	0.01425141776937618	0.005429111531190926	0	0	0	0	0	0	1	-89.9	89.9;
	2044	2047	0.01266351606805293	0.004824196597353498	0	0	0	0	0	0	1	-89.9	89.9;
	2047	2048	0.00021739130434782607	2.835538752362949e-05	0	0	0	0	0	0	1	-89.9	89.9;
	2042	2049	1.4438563327032137	0.1045179584120983	0	0	0	0	0	0	1	-89.9	89.9;
	2049	2050	0.3640831758034026	0.015311909262759923	0	0	0	0	0	0	1	-89.9	89.9;
	2050	2051	0.00021739130434782607	2.835538752362949e-05	0	0	0	0	0	0	1	-89.9	89.9;
	2049	2052	0.3640831758034026	0.015311909262759923	0	0	0	0	0	0	1	-89.9	89.9;
	2052	2053	0.00021739130434782607	2.835538752362949e-05	0	0	0	0	0	0	1	-89.9	89.9;
	2039	2054	0.2533081285444234	0.01833648393194707	0	0	0	0	0	0	1	-89.9	89.9;
	2054	2055	0.5319470699432892	0.03850661625708885	0	0	0	0	0	0	1	-89.9	89.9;
	2055	2056	0.00021739130434782607	2.835538752362949e-05	0	0	0	0	0	0	1	-89.9	89.9;
	2039	2057	0.4838260869565218	0.020347826086956518	0	0	0	0	0	0	1	-89.9	89.9;
	2057	2058	0.00021739130434782607	2.835538752362949e-05	0	0	0	0	0	0	1	-89.9	89.9;
	2039	2059	0.44499054820415873	0.018714555765595463	0	0	0	0	0	0	1	-89.9	89.9;
	2059	2060	0.9304347826086956	0.03913043478260869	0	0	0	0	0	0	1	-89.9	89.9;
	2060	2061	0.00021739130434782607	2.835538752362949e-05	0	0	0	0	0	0	1	-89.9	89.9;
	2036	2062	0.6472589792060491	0.027221172022684308	0	0	0	0	0	0	1	-89.9	89.9;
	2062	2063	0.5258979206049149	0.022117202268431	0	0	0	0	0	0	1	-89.9	89.9;
	2063	2064	0.00021739130434782607	2.835538752362949e-05	0	0	0	0	0	0	1	-89.9	89.9;
	3570	3571	0.05756137996219281	0.028374291115311905	0	0	0	0	0	0	1	-89.9	89.9;
	3571	3572	0.008729867674858222	0.0032136105860113423	0	0	0	0	0	0	1	-89.9	89.9;
	3572	3573	0.00021739130434782607	2.835538752362949e-05	0	0	0	0	0	0	1	-89.9	89.9;
	3571	3574	0.13330003780718333	0.06570888468809073	0	0	0	0	0	0	1	-89.9	89.9;
	3574	3575	0.052379206049149335	0.019281663516068054	0	0	0	0	0	0	1	-89.9	89.9;
	3575	3576	0.13330003780718333	0.06570888468809073	0	0	0	0	0	0	1	-89.9	89.9;
	3576	3577	0.013094801512287334	0.0048204158790170135	0	0	0	0	0	0	1	-89.9	89.9;
	3577	3578	0.00021739130434782607	2.835538752362949e-05	0	0	0	0	0	0	1	-89.9	89.9;
	3576	3579	0.03938410207939508	0.019413988657844987	0	0	0	0	0	0	1	-89.9	89.9;
	3579	3580	0.01689229395085066	0.006218336483931948	0	0	0	0	0	0	1	-89.9	89.9;
	3579	3581	0.08729867674858223	0.03213610586011342	0	0	0	0	0	0	1	-89.9	89.9;
	3581	3582	0.00021739130434782607	2.835538752362949e-05	0	0	0	0	0	0	1	-89.9	89.9;
	3575	3583	0.10132325141776938	0.007334593572778827	0	0	0	0	0	0	1	-89.9	89.9;
	3583	3584	0.00021739130434782607	2.835538752362949e-05	0	0	0	0	0	0	1	-89.9	89.9;
	3574	3585	0.16056595463137993	0.07914933837429111	0	0	0	0	0	0	1	-89.9	89.9;
	3585	3586	0.30396975425330813	0.022003780718336485	0	0	0	0	0	0	1	-89.9	89.9;
	3586	3587	0.06394628071833648	0.02353969754253308	0	0	0	0	0	0	1	-89.9	89.9;
	3587	3588	0.008336483931947069	0.0031758034026465026	0	0	0	0	0	0	1	-89.9	89.9;
	3588	3589	0.004128544423440453	0.0015727788279773153	0	0	0	0	0	0	1	-89.9	89.9;
	3588	3590	0.004128544423440453	0.0015727788279773153	0	0	0	0	0	0	1	-89.9	89.9;
	3590	3591	0.004168241965973534	0.0015879017013232513	0	0	0	0	0	0	1	-89.9	89.9;
	3591	3592	0.010321361058601132	0.003931947069943289	0	0	0	0	0	0	1	-89.9	89.9;
	3592	3593	0.00021739130434782607	2.835538752362949e-05	0	0	0	0	0	0	1	-89.9	89.9;
	3585	3594	0.09391593572778827	0.046294896030245745	0	0	0	0	0	0	1	-89.9	89.9;
	3594	3595	0.013094801512287334	0.0048204158790170135	0	0	0	0	0	0	1	-89.9	89.9;
	3595	3596	0.00021739130434782607	2.835538752362949e-05	0	0	0	0	0	0	1	-89.9	89.9;
	3594	3597	0.05150228733459357	0.0253875236294896	0	0	0	0	0	0	1	-89.9	89.9;
	3597	3598	0.013094801512287334	0.0048204158790170135	0	0	0	0	0	0	1	-89.9	89.9;
	3598	3599	0.00021739130434782607	2.835538752362949e-05	0	0	0	0	0	0	1	-89.9	89.9;
	3597	3600	0.006059092627599243	0.002986767485822306	0	0	0	0	0	0	1	-89.9	89.9;
	3585	3601	0.008729867674858222	0.0032136105860113423	0	0	0	0	0	0	1	-89.9	89.9;
	3601	3602	0.00021739130434782607	2.835538752362949e-05	0	0	0	0	0	0	1	-89.9	89.9;
	3585	3603	0.03938410207939508	0.019413988657844987	0	0	0	0	0	0	1	-89.9	89.9;
	3603	3604	0.20297960302457466	0.10005671077504726	0	0	0	0	0	0	1	-89.9	89.9;
	3604	3605	0.2313414933837429	0.08516068052930056	0	0	0	0	0	0	1	-89.9	89.9;
	3605	3606	0.3099103024574669	0.11408317580340263	0	0	0	0	0	0	1	-89.9	89.9;
	3606	3607	0.013094801512287334	0.0048204158790170135	0	0	0	0	0	0	1	-89.9	89.9;
	3607	3608	0.008729867674858222	0.0032136105860113423	0	0	0	0	0	0	1	-89.9	89.9;
	3607	3609	0.004364933837429111	0.0016068052930056712	0	0	0	0	0	0	1	-89.9	89.9;
	3609	3610	0.00021739130434782607	2.835538752362949e-05	0	0	0	0	0	0	1	-89.9	89.9;
	3609	3611	0.05905755482041588	0.021740075614366732	0	0	0	0	0	0	1	-89.9	89.9;
	3611	3612	0.3399846965973535	0.12515406427221173	0	0	0	0	0	0	1	-89.9	89.9;
	3612	3613	0.00021739130434782607	2.835538752362949e-05	0	0	0	0	0	0	1	-89.9	89.9;
	3612	3614	0.03672022684310018	0.013988657844990548	0	0	0	0	0	0	1	-89.9	89.9;
	3612	3615	0.07564430340264651	0.027845935727788283	0	0	0	0	0	0	1	-89.9	89.9;
	3615	3616	0.00021739130434782607	2.835538752362949e-05	0	0	0	0	0	0	1	-89.9	89.9;
	3615	3617	0.157137618147448	0.057844990548204155	0	0	0	0	0	0	1	-89.9	89.9;
	3617	3618	0.00021739130434782607	2.835538752362949e-05	0	0	0	0	0	0	1	-89.9	89.9;
	3617	3619	0.017459735349716444	0.006427221172022685	0	0	0	0	0	0	1	-89.9	89.9;
	3619	3620	0.00021739130434782607	2.835538752362949e-05	0	0	0	0	0	0	1	-89.9	89.9;
	3619	3621	0.017459735349716444	0.006427221172022685	0	0	0	0	0	0	1	-89.9	89.9;
	3621	3622	0.00021739130434782607	2.835538752362949e-05	0	0	0	0	0	0	1	-89.9	89.9;
	3621	3623	0.013094801512287334	0.0048204158790170135	0	0	0	0	0	0	1	-89.9	89.9;
	3611	3624	0.029987095463137995	0.011038752362948961	0	0	0	0	0	0	1	-89.9	89.9;
	3626	3627	0.06547400756143668	0.024102079395085067	0	0	0	0	0	0	1	-89.9	89.9;
	3627	3628	0.47141285444234404	0.17353497164461248	0	0	0	0	0	0	1	-89.9	89.9;
	3628	3629	0.06591050094517958	0.024262759924385636	0	0	0	0	0	0	1	-89.9	89.9;
	3667	3668	0.12221814744801511	0.04499054820415879	0	0	0	0	0	0	1	-89.9	89.9;
	3668	3669	0.6711958761814744	0.24707844990548206	0	0	0	0	0	0	1	-89.9	89.9;
	3669	3670	0.1134882797731569	0.04177693761814745	0	0	0	0	0	0	1	-89.9	89.9;
	3670	3671	0.017160680529300566	0.003440453686200378	0	0	0	0	0	0	1	-89.9	89.9;
	3670	3672	0.013094801512287334	0.0048204158790170135	0	0	0	0	0	0	1	-89.9	89.9;
	3672	3673	0.00021739130434782607	2.835538752362949e-05	0	0	0	0	0	0	1	-89.9	89.9;
	3672	3674	0.06983894139886578	0.02570888468809074	0	0	0	0	0	0	1	-89.9	89.9;
	3674	3675	0.00021739130434782607	2.835538752362949e-05	0	0	0	0	0	0	1	-89.9	89.9;
	3674	3676	0.04674844139886579	0.017208884688090738	0	0	0	0	0	0	1	-89.9	89.9;
	3676	3677	0.32448771266540644	0.0234890359168242	0	0	0	0	0	0	1	-89.9	89.9;
	3677	3678	0.08854911153119092	0.01775274102079395	0	0	0	0	0	0	1	-89.9	89.9;
	3678	3679	0.18739463137996218	0.03756975425330812	0	0	0	0	0	0	1	-89.9	89.9;
	3679	3680	0.00021739130434782607	2.835538752362949e-05	0	0	0	0	0	0	1	-89.9	89.9;
	3677	3681	0.09043678638941399	0.018131190926275992	0	0	0	0	0	0	1	-89.9	89.9;
	3681	3682	0.00021739130434782607	2.835538752362949e-05	0	0	0	0	0	0	1	-89.9	89.9;
	3676	3683	0.1222617967863894	0.04500661625708885	0	0	0	0	0	0	1	-89.9	89.9;
	3683	3684	0.4833291238185255	0.17792155009451796	0	0	0	0	0	0	1	-89.9	89.9;
	3684	3685	0.09306038941398866	0.034257088846880904	0	0	0	0	0	0	1	-89.9	89.9;
	3685	3686	0.10777021644612475	0.03967202268431002	0	0	0	0	0	0	1	-89.9	89.9;
	3685	3687	0.009646503780718336	0.0035510396975425335	0	0	0	0	0	0	1	-89.9	89.9;
	3687	3688	0.00021739130434782607	2.835538752362949e-05	0	0	0	0	0	0	1	-89.9	89.9;
	3687	3689	0.01708683856332703	0.004239697542533081	0	0	0	0	0	0	1	-89.9	89.9;
	3687	3690	0.18503961285444234	0.045913232514177685	0	0	0	0	0	0	1	-89.9	89.9;
	3690	3691	0.00021739130434782607	2.835538752362949e-05	0	0	0	0	0	0	1	-89.9	89.9;
	3690	3692	0.12221814744801511	0.04499054820415879	0	0	0	0	0	0	1	-89.9	89.9;
	3684	3693	0.015934155009451795	0.003953686200378071	0	0	0	0	0	0	1	-89.9	89.9;
	3693	3694	0.00021739130434782607	2.835538752362949e-05	0	0	0	0	0	0	1	-89.9	89.9;
	3683	3695	0.09701701323251419	0.007022873345935728	0	0	0	0	0	0	1	-89.9	89.9;
	3695	3696	0.00021739130434782607	2.835538752362949e-05	0	0	0	0	0	0	1	-89.9	89.9;
	2034	3671	0.0001890359168241966	1.8903591682419658e-05	0	0	0	0	0	0	1	-89.9	89.9;
	3608	3692	0.0001890359168241966	1.8903591682419658e-05	0	0	0	0	0	0	1	-89.9	89.9;
	3629	3589	0.0001890359168241966	1.8903591682419658e-05	0	0	0	0	0	0	1	-89.9	89.9;
];

% adds current ratings, is_switch boolean, and default switch state to the branch matrix
%column_names%	c_rating_a	is_switch	z_branch_start	branch_id
mpc.branch_extensions = [
	0.07015	1	1	1899;
	0.07015	0	1	1900;
	0.0368	0	1	1901;
	0.0276	0	1	1902;
	0.0368	0	1	1903;
	0.0276	0	1	1904;
	0.0368	0	1	1905;
	0.0276	0	1	1906;
	0.0368	0	1	1907;
	0.07015	0	1	1908;
	0.0276	0	1	1909;
	0.07015	0	1	1910;
	0.0529	0	1	1911;
	0.0529	0	1	1912;
	0.023000000000000003	0	1	1913;
	0.0276	0	1	1914;
	0.0529	0	1	1915;
	0.023000000000000003	0	1	1916;
	0.0276	0	1	1917;
	0.0529	0	1	1918;
	0.0276	0	1	1919;
	0.01725	0	1	1920;
	0.0276	0	1	1921;
	0.046000000000000006	0	1	1922;
	0.046000000000000006	0	1	1923;
	0.0276	0	1	1924;
	0.023000000000000003	0	1	1925;
	0.023000000000000003	0	1	1926;
	0.0276	0	1	1927;
	0.01725	0	1	1928;
	0.0276	0	1	1929;
	0.023000000000000003	0	1	1930;
	0.023000000000000003	0	1	1931;
	0.0276	0	1	1932;
	0.01725	0	1	1933;
	0.0276	0	1	1934;
	0.023000000000000003	0	1	1935;
	0.023000000000000003	0	1	1936;
	0.0276	0	1	1937;
	0.023000000000000003	0	1	1938;
	0.023000000000000003	0	1	1939;
	0.0276	0	1	1940;
	0.07912	1	1	3336;
	0.07015	0	1	3337;
	0.0276	0	1	3338;
	0.07912	0	1	3339;
	0.07015	0	1	3340;
	0.07912	0	1	3341;
	0.07015	0	1	3342;
	0.0276	0	1	3343;
	0.07912	0	1	3344;
	0.07015	0	1	3345;
	0.07015	0	1	3346;
	0.0276	0	1	3347;
	0.023000000000000003	0	1	3348;
	0.0276	0	1	3349;
	0.07912	0	1	3350;
	0.023000000000000003	0	1	3351;
	0.07015	1	1	3352;
	0.046000000000000006	0	1	3353;
	0.046000000000000006	0	1	3354;
	0.046000000000000006	0	1	3355;
	0.046000000000000006	0	1	3356;
	0.046000000000000006	1	1	3357;
	0.0276	0	1	3358;
	0.07912	0	1	3359;
	0.07015	0	1	3360;
	0.0276	0	1	3361;
	0.07912	0	1	3362;
	0.07015	0	1	3363;
	0.0276	0	1	3364;
	0.07912	0	1	3365;
	0.07015	0	1	3366;
	0.0276	0	1	3367;
	0.07912	0	1	3368;
	0.07912	0	1	3369;
	0.07015	0	1	3370;
	0.07015	1	1	3371;
	0.07015	0	1	3372;
	0.07015	0	1	3373;
	0.07015	0	1	3374;
	0.0276	0	1	3375;
	0.07015	0	1	3376;
	0.07015	0	1	3377;
	0.0276	0	1	3378;
	0.046000000000000006	0	1	3379;
	0.07015	0	1	3380;
	0.0276	0	1	3381;
	0.07015	0	1	3382;
	0.0276	0	1	3383;
	0.07015	0	1	3384;
	0.0276	0	1	3385;
	0.07015	0	1	3386;
	0.0276	0	1	3387;
	0.07015	0	1	3388;
	0.07015	0	1	3389;
	0.07015	1	1	3390;
	0.07015	0	1	3391;
	0.07015	0	1	3392;
	0.07015	1	1	3427;
	0.07015	0	1	3428;
	0.07015	0	1	3429;
	0.0368	0	1	3430;
	0.07015	0	1	3431;
	0.0276	0	1	3432;
	0.07015	0	1	3433;
	0.0276	0	1	3434;
	0.07015	0	1	3435;
	0.023000000000000003	0	1	3436;
	0.0368	0	1	3437;
	0.0368	0	1	3438;
	0.0276	0	1	3439;
	0.0368	0	1	3440;
	0.0276	0	1	3441;
	0.07015	0	1	3442;
	0.07015	0	1	3443;
	0.07015	0	1	3444;
	0.07015	0	1	3445;
	0.07015	0	1	3446;
	0.0276	0	1	3447;
	0.0529	0	1	3448;
	0.0529	0	1	3449;
	0.0276	0	1	3450;
	0.07015	0	1	3451;
	0.0529	0	1	3452;
	0.0276	0	1	3453;
	0.023000000000000003	0	1	3454;
	0.0276	0	1	3455;
	2.3000000000000003	1	0	3592;
	2.3000000000000003	1	0	3596;
	2.3000000000000003	1	0	3609;
];